/batch
/config,noeldb,1     ! force off writing results to database
*get,_wallstrt,active,,time,wall
! ANSYS input file written by Workbench version 2023 R1
! File used for geometry attach: 
/title,wbnew--Static Structural (A5)
! ****** Begin Custom Load Command Snippet ******
/COM, ACT Extensions:
/COM,     LSDYNA, 2023.1
/COM,     5f463412-bd3e-484b-87e7-cbc0a665e474, wbex
/COM,/COM,     ANSYSMotion, 2023.1
/COM,     20180725-3f81-49eb-9f31-41364844c769, wbex
/COM,
! ****** End   Custom Load Command Snippet ******
*DIM,_wb_ProjectScratch_dir,string,248
_wb_ProjectScratch_dir(1) = 'C:\Users\user\AppData\Local\Temp\WB_user_5240_2\_ProjectScratch\Scr2537\'
*DIM,_wb_SolverFiles_dir,string,248
_wb_SolverFiles_dir(1) = 'C:\Users\user\AppData\Local\Temp\WB_user_5240_2\wbnew_files\dp0\SYS\MECH\'
*DIM,_wb_userfiles_dir,string,248
_wb_userfiles_dir(1) = 'C:\Users\user\AppData\Local\Temp\WB_user_5240_2\wbnew_files\user_files\'
/com,--- Data in consistent NMM units. See Solving Units in the help system for more information.
/units,MPA
/nopr
/wb,file,start              !  signify a WB generated input file
/prep7
! Turn off shape checking because checks already performed inside WB mesher.
! See help system for more information.
SHPP,OFF,,NOWARN
/nolist
etcon,set             ! allow ANSYS to choose best KEYOP's for 180x elements, resets any applicable keyopt to MAPDL defaults
/com,*********** Nodes for the whole assembly ***********
nblock,3,,9109
(1i9,3e20.9e3)
        1     9.166666667E-01     9.166666667E-01     9.166666667E-01
        2     8.333333333E-01     9.166666667E-01     9.166666667E-01
        3     7.500000000E-01     9.166666667E-01     9.166666667E-01
        4     6.666666667E-01     9.166666667E-01     9.166666667E-01
        5     5.833333333E-01     9.166666667E-01     9.166666667E-01
        6     5.000000000E-01     9.166666667E-01     9.166666667E-01
        7     4.166666667E-01     9.166666667E-01     9.166666667E-01
        8     3.333333333E-01     9.166666667E-01     9.166666667E-01
        9     2.500000000E-01     9.166666667E-01     9.166666667E-01
       10     1.666666667E-01     9.166666667E-01     9.166666667E-01
       11     8.333333333E-02     9.166666667E-01     9.166666667E-01
       12     9.166666667E-01     8.333333333E-01     9.166666667E-01
       13     8.333333333E-01     8.333333333E-01     9.166666667E-01
       14     7.500000000E-01     8.333333333E-01     9.166666667E-01
       15     6.666666667E-01     8.333333333E-01     9.166666667E-01
       16     5.833333333E-01     8.333333333E-01     9.166666667E-01
       17     5.000000000E-01     8.333333333E-01     9.166666667E-01
       18     4.166666667E-01     8.333333333E-01     9.166666667E-01
       19     3.333333333E-01     8.333333333E-01     9.166666667E-01
       20     2.500000000E-01     8.333333333E-01     9.166666667E-01
! ... 8262 like lines cut
/com,*********** Nodes for all Remote Points ***********
nblock,3
(1i9,3e20.9e3)
     8282     5.000000000E-01     5.000000000E-01     1.000000000E+00
-1
/wb,elem,start            !  set before creation of elements
/com,*********** Elements for Body 1 "Solid" ***********
et,1,186
keyo,1,2,1          ! set full integration on SOLID186
eblock,19,solid,,1728
(19i9)
        1        1        1        1        0        0        0        0       20        0        1        1     1888     1767     1732     1452     1899     1766     1743
     2203     7469     7411     2202     6817     7467     7432     6816     2201     7710     7466     7410
        1        1        1        1        0        0        0        0       20        0        2        1     1732     1767     1888        2     1733     1768     1877
     2202     7411     7469     2203     2207     7413     7471     2208     2198     7409     7468     7688
        1        1        1        1        0        0        0        0       20        0        3        2     1733     1768     1877        3     1734     1769     1866
     2207     7413     7471     2208     2212     7415     7473     2213     2204     7412     7470     7666
        1        1        1        1        0        0        0        0       20        0        4        3     1734     1769     1866        4     1735     1770     1855
     2212     7415     7473     2213     2217     7417     7475     2218     2209     7414     7472     7644
        1        1        1        1        0        0        0        0       20        0        5        4     1735     1770     1855        5     1736     1771     1844
     2217     7417     7475     2218     2222     7419     7477     2223     2214     7416     7474     7622
        1        1        1        1        0        0        0        0       20        0        6        5     1736     1771     1844        6     1737     1772     1833
     2222     7419     7477     2223     2227     7421     7479     2228     2219     7418     7476     7600
        1        1        1        1        0        0        0        0       20        0        7        6     1737     1772     1833        7     1738     1773     1822
     2227     7421     7479     2228     2232     7423     7481     2233     2224     7420     7478     7578
        1        1        1        1        0        0        0        0       20        0        8        7     1738     1773     1822        8     1739     1774     1811
     2232     7423     7481     2233     2237     7425     7483     2238     2229     7422     7480     7556
        1        1        1        1        0        0        0        0       20        0        9        8     1739     1774     1811        9     1740     1775     1800
     2237     7425     7483     2238     2242     7427     7485     2243     2234     7424     7482     7534
        1        1        1        1        0        0        0        0       20        0       10        9     1740     1775     1800       10     1741     1776     1789
     2242     7427     7485     2243     2247     7429     7487     2248     2239     7426     7484     7512
! ... 3437 like lines cut
!Material Id = {ACB6E8B2-7B72-4505-BEFF-2F81AD98895A}
/wb,elem,end               !  done creating elements
/com,*********** Send User Defined Coordinate System(s) ***********
csys,0
toffst,273.15,  ! Temperature offset from absolute zero
/com,*********** Set Reference Temperature ***********
tref,22.
/wb,mat,start              !  starting to send materials
/com,*********** Send Materials ***********
MP,DENS,1,7.85e-09,	! tonne mm^-3
MP,ALPX,1,1.2e-05,	! C^-1
MP,C,1,434000000,	! mm^2 s^-2 C^-1
MP,KXX,1,60.5,	! tonne mm s^-3 C^-1
MP,RSVX,1,0.00017,	! ohm mm
MP,EX,1,200000,	! tonne s^-2 mm^-1
MP,NUXY,1,0.3,
MP,MURX,1,10000,
MP,UVID,1,f8d780cd-3e5f-4991-b0f9-db1f041b92f5
MP,UMID,1,59002a79-71c2-428e-906b-55d7dbee100e

/wb,mat,end                !  done sending materials
!************************* Model Summary ********************
!Solid,	Structural Steel,	matid,	1
!************************* End Model Summary ********************
! get the diagonal of the bounding box. Needed later for other things
*get,_xmin,node,,mnloc,x
*get,_ymin,node,,mnloc,y
*get,_zmin,node,,mnloc,z
*get,_xmax,node,,mxloc,x
*get,_ymax,node,,mxloc,y
*get,_zmax,node,,mxloc,z
_ASMDIAG=(_xmax-_xmin)*(_xmax-_xmin)+(_ymax-_ymin)*(_ymax-_ymin)+(_zmax-_zmin)*(_zmax-_zmin)
_ASMDIAG=SQRT(_ASMDIAG)
/wb,contact,start          !  starting to send contact
/wb,contact,end            !  done creating contacts
/golist
/wb,load,start             !  starting to send loads
/com,*********** Create Remote Point "Internal Remote Point" ***********
! -------- Remote Point Used by "Remote Displacement" --------
*set,tid,3
*set,cid,2
et,cid,174
et,tid,170
keyo,tid,2,1               ! Don't fix the pilot node
keyo,tid,4,111111
keyo,cid,12,5              ! Bonded Contact 
keyo,cid,4,1               ! Deformable RBE3 style load
keyo,cid,2,2               ! MPC style contact
eblock,10,,,144
(15i9)
     2594        2        2        2        0     1753     1622     1764     1765     7180     7181     7463     7442
     2595        2        2        2        0     1752     1633     1622     1753     7213     7179     7180     7441
     2596        2        2        2        0     1751     1644     1633     1752     7235     7212     7213     7440
     2597        2        2        2        0     1750     1655     1644     1751     7257     7234     7235     7439
     2598        2        2        2        0     1749     1666     1655     1750     7279     7256     7257     7438
     2599        2        2        2        0     1748     1677     1666     1749     7301     7278     7279     7437
     2600        2        2        2        0     1747     1688     1677     1748     7323     7300     7301     7436
     2601        2        2        2        0     1746     1699     1688     1747     7345     7322     7323     7435
     2602        2        2        2        0     1745     1710     1699     1746     7367     7344     7345     7434
     2603        2        2        2        0     1744     1721     1710     1745     7389     7366     7367     7433
     2604        2        2        2        0     1743     1732     1721     1744     7410     7388     7389     7431
     2605        2        2        2        0     1766     1767     1732     1743     7466     7411     7410     7432
     2606        2        2        2        0     1622     1623     1763     1764     7178     7184     7461     7181
     2607        2        2        2        0     1633     1634     1623     1622     7211     7183     7178     7179
     2608        2        2        2        0     1644     1645     1634     1633     7233     7215     7211     7212
     2609        2        2        2        0     1655     1656     1645     1644     7255     7237     7233     7234
     2610        2        2        2        0     1666     1667     1656     1655     7277     7259     7255     7256
     2611        2        2        2        0     1677     1678     1667     1666     7299     7281     7277     7278
     2612        2        2        2        0     1688     1689     1678     1677     7321     7303     7299     7300
     2613        2        2        2        0     1699     1700     1689     1688     7343     7325     7321     7322
! ... 125 like lines cut
*set,_npilot,8282
_npilot37=_npilot
type,tid
mat ,cid
real,cid
tshape,pilo
en,2738,_npilot
tshape
/com,*********** Construct Remote Displacement ***********

/COM,*** Create a component for all remote displacements ***
CMBLOCK,REMOTEDISPALL,NODE,        1
(8i10)
      8282

/gst,on,on
fini
*get,_numnode,node,0,count
*get,_numelem,elem,0,count
*get, _MAXELEMNUM, elem, 0, NUM, MAX
*get, _MAXNODENUM, node, 0, NUM, MAX
*get, _MAXELEMTYPE, etyp, 0, NUM, MAX
*get, _MAXREALCONST, rcon, 0, NUM, MAX
/go
/wb,load,end               !  done creating loads
/com,--- Number of total nodes = %_numnode%
/com,--- Number of contact elements = 144
/com,--- Number of spring elements = 0
/com,--- Number of bearing elements = 0
/com,--- Number of solid elements = 1728
/com,--- Number of condensed parts = 0
/com,--- Number of total elements = %_numelem%
*get,_wallbsol,active,,time,wall
/com,****************************************************************************
/com,*************************    SOLUTION       ********************************
/com,****************************************************************************
/solu
antype,0                   ! static analysis
_thickRatio=  1     ! Ratio of thick parts in the model
eqsl,pcg,1e-8,,,,,,1
cntr,print,1               ! print out contact info and also make no initial contact an error
dmpoption,emat,no             ! Don't combine emat file for DANSYS
dmpoption,esav,no             ! Don't combine esav file for DANSYS
nldiag,cont,iter           ! print out contact info each equilibrium iteration
rescontrol,,none                 ! Do not keep any restart files
/com,****************************************************
/com,******************* SOLVE FOR LS 1 OF 1 ****************
d,8282,rotz,0.
acel,0.,0.,9806.65
/nopr
/gopr
nsub,1,1,1
time,1.
outres,erase
outres,all,none
outres,nsol,all,
outres,rsol,all
outres,eangl,all
outres,etmp,all
outres,veng,all
outres,strs,all,
outres,epel,all,
outres,eppl,all,
outres,cont,all,
cnvtol,,-1,29               ! User deleted Convergence, engy
! *********** WB SOLVE COMMAND ***********
! check interactive state
*get,ANSINTER_,active,,int
*if,ANSINTER_,ne,0,then
/eof
*endif
solve
/com *************** Write FE CONNECTORS ********* 
CEWRITE,file,ce,,INTE
/com,****************************************************
/com,*************** FINISHED SOLVE FOR LS 1 *************
*get,_wallasol,active,,time,wall
/nopr
*get,_numnode,node,0,count
*get,_numelem,elem,0,count
*get, _MAXELEMNUM, elem, 0, NUM, MAX
*get, _MAXNODENUM, node, 0, NUM, MAX,,,INTERNAL
*get, _MAXELEMTYPE, etyp, 0, NUM, MAX
*get, _MAXREALCONST, rcon, 0, NUM, MAX
*get,_NSOLTHREADS,active,0,ntfs
*get,_NSOLPROCESSES,active,0,npfs
/gopr
*get,_PCGITER,active,,solu,cgiter
/post1
xmlo,ENCODING,ISO-8859-1
xmlo,parm
/xml,parm,xml
fini
/gopr
*get,_walldone,active,,time,wall
_preptime=(_wallbsol-_wallstrt)*3600
_solvtime=(_wallasol-_wallbsol)*3600
_posttime=(_walldone-_wallasol)*3600
_totaltim=(_walldone-_wallstrt)*3600
*get,_dlbratio,active,0,solu,dlbr
*get,_combtime,active,0,solu,comb
*get,_ssmode,active,0,solu,ssmm
*get,_ndofs,active,0,solu,ndof
*get,_sol_end_time,active,0,set,time
*if,_sol_end_time,eq,1.000000,then
/fclean				!clean distributed files
*endif
/com,--- Total number of nodes = %_numnode%
/com,--- Total number of elements = %_numelem%
/com,--- Element load balance ratio = %_dlbratio%
/com,--- Time to combine distributed files = %_combtime%
/com,--- Sparse memory mode = %_ssmode%
/com,--- Number of DOF = %_ndofs%
/wb,file,end               ! done with WB generated input
